data_image0
_chemical_formula_structural       C2O2N4H8
_chemical_formula_sum              "C2 O2 N4 H8"
_cell_length_a       5.661
_cell_length_b       5.661
_cell_length_c       4.712
_cell_angle_alpha    90.0
_cell_angle_beta     90.0
_cell_angle_gamma    90.0

_space_group_name_H-M_alt    "P 1"
_space_group_IT_number       1

loop_
  _space_group_symop_operation_xyz
  'x, y, z'

loop_
  _atom_site_type_symbol
  _atom_site_label
  _atom_site_symmetry_multiplicity
  _atom_site_fract_x
  _atom_site_fract_y
  _atom_site_fract_z
  _atom_site_occupancy
  C   C1        1.0  0.0  0.4999999999999999  0.333  1.0000
  C   C2        1.0  0.4999999999999999  0.0  0.667  1.0000
  O   O1        1.0  0.0  0.4999999999999999  0.5968  1.0000
  O   O2        1.0  0.4999999999999999  0.0  0.4032  1.0000
  N   N1        1.0  0.14389999999999997  0.6439  0.1832  1.0000
  N   N2        1.0  0.8561  0.35609999999999997  0.1832  1.0000
  N   N3        1.0  0.6439  0.8561000000000001  0.8168  1.0000
  N   N4        1.0  0.35609999999999997  0.14389999999999992  0.8168  1.0000
  H   H1        1.0  0.2522  0.7522  0.2839  1.0000
  H   H2        1.0  0.7477999999999999  0.24780000000000002  0.2839  1.0000
  H   H3        1.0  0.7522  0.7477999999999999  0.7161  1.0000
  H   H4        1.0  0.24780000000000002  0.2522  0.7161  1.0000
  H   H5        1.0  0.1365  0.6365  0.9724  1.0000
  H   H6        1.0  0.8634999999999999  0.36349999999999993  0.9724  1.0000
  H   H7        1.0  0.6365  0.8634999999999999  0.027599999999999954  1.0000
  H   H8        1.0  0.36349999999999993  0.13649999999999984  0.027599999999999954  1.0000
