data_image0
_chemical_formula_structural   CoO
_chemical_formula_sum   'Co2 O2'
_cell_length_a   3.1976
_cell_length_b   3.1976
_cell_length_c   5.2287
_cell_angle_alpha   90.0
_cell_angle_beta   90.0
_cell_angle_gamma   120.0

_space_group_name_H-M_alt    "P 1"
_space_group_IT_number       1

loop_
 _symmetry_equiv_pos_site_id
 _symmetry_equiv_pos_as_xyz
  1  'x, y, z'
loop_
 _atom_type_symbol
 _atom_type_oxidation_number
  Co  2.0
  O  -2.0
loop_
 _atom_site_type_symbol
 _atom_site_label
 _atom_site_symmetry_multiplicity
 _atom_site_fract_x
 _atom_site_fract_y
 _atom_site_fract_z
 _atom_site_occupancy
  Co  Co0  1  0.33333333  0.66666667  0.00347414  1
  Co  Co1  1  0.66666667  0.33333333  0.50347414  1
  O  O2  1  0.33333333  0.66666667  0.37160885  1
  O  O3  1  0.66666667  0.33333333  0.87160885  1
